<routes>
    <vType id="car" accel="1.0" decel="5.0" sigma="0.5" length="5.0" minGap="2.5" maxSpeed="16.67" color="1,0,0"/>
    <route id="route0" edges="edge0"/>
    <vehicle id="vehicle0" type="car" route="route0" depart="0" color="0,1,0"/>
</routes>

